CoresoETL/UCT_Source/20221102_1230_FO3_IT1.uct
##C 2007.05.01
DATA51  Dati creati in data  02 11 2022             12:30:00
COMM51  UCTE file Name : 20221102_1230_FO0_IT0.UCT
COMM51  Schede UCTE generate in OUTPUT in data  1:Nov:2022 18:56:42 - Versione UCTE   2 - Ver. TOUCTE 2.0
COMM51  UTENZA     : T1
COMM51  SITUAZIONE : S01 02-Nov-2022 12:30:00 - GRANDEZZE CALCOLATE

##N
##ZIT
ICINR121 A.CINEC.FL   0 0 227.95    79.6   -27.3     0.0     0.0     0.0     0.0     0.0     0.0   0.0     0.0
IAFKR121 A.FLAM.AL    0 0 228.60     0.0     0.0     0.0     0.0     0.0     0.0     0.0     0.0   0.0     0.0
IAFLR121 A.FLAMI.OS   0 0 228.68    93.0  -144.1     0.0     0.0     0.0     0.0     0.0     0.0   0.0     0.0
IPDAR121 A.P.DANTE    0 0 227.64    29.4     1.8     0.0     0.0     0.0     0.0     0.0     0.0   0.0     0.0
ISPAR121 A.S.PAOLO    0 0 227.60    42.1    -0.2     0.0     0.0     0.0     0.0     0.0     0.0   0.0     0.0
ITIBR121 A.TIBURTIN   0 0 227.64    43.4     2.8     0.0     0.0     0.0     0.0     0.0     0.0   0.0     0.0
IABDR12Z ABBADIA      0 0 220.00     0.0     0.0     0.0     0.0     0.0     0.0     0.0     0.0   0.0     0.0
IABKR12Z ABBADIA NK   0 0 220.00     0.0     0.0     0.0     0.0     0.0     0.0     0.0     0.0   0.0     0.0
IAVAV121 AC.BELT NK   0 0 234.10     0.0     0.0     0.0     0.0     0.0     0.0     0.0     0.0   0.0     0.0
IABSV121 AC.BERTOLI   0 0 235.83     9.2    -4.5     0.0     0.0     0.0     0.0     0.0     0.0   0.0     0.0
IABSV12M AC.BERTOLI   0 0 235.41     0.0     0.0     0.0     0.0     0.0     0.0     0.0     0.0   0.0     0.0
IACBV121 AC.VALB.BZ   0 0 227.29    14.3    28.8     0.0     0.0     0.0     0.0     0.0     0.0   0.0     0.0
IAVBV121 AC.VALB.VI   0 0 234.08    37.3    15.0     0.0     0.0     0.0     0.0     0.0     0.0   0.0     0.0
IAVEV121 AC.VEN.220   0 0 233.79   109.6    54.0     0.0     0.0     0.0     0.0     0.0     0.0   0.0     0.0
IAVRV121 AC.VERONA    0 0 236.55    26.2    -2.7     0.0     0.0     0.0     0.0     0.0     0.0   0.0     0.0
IABAV121 ACC. BZ NK   0 0 227.33     0.0     0.0     0.0     0.0     0.0     0.0     0.0     0.0   0.0     0.0
IACIF111 ACCIAIOLO    0 0 407.41   165.3    53.8     0.0     0.0     0.0     0.0     0.0     0.0   0.0     0.0
IAEPT111 ACEA LEYNI   0 2 403.84     0.0     0.0   -24.0    89.1  -163.0  -391.0   203.1  -367.2   5.0   392.0
ISOGN12Z ACERRA ENE   0 0 220.00     0.0     0.0     0.0     0.0     0.0     0.0     0.0     0.0   0.0     0.0
IACSN121 ACERRA SM    0 0 229.61     0.0     0.0     0.0     0.0     0.0     0.0     0.0     0.0   0.0     0.0
IADSV111 ADRIA SUD    0 0 407.18   -16.0    11.2     0.0     0.0     0.0     0.0     0.0     0.0   0.0     0.0
IAQAV121 AIRL.VR NK   0 0 236.89     0.0     0.0     0.0     0.0     0.0     0.0     0.0     0.0   0.0     0.0
IALQV121 AIRLIQ.VR    0 0 236.96     5.0   -35.0     0.0     0.0     0.0     0.0     0.0     0.0   0.0     0.0
IALAV121 ALA          0 2 236.28     0.0     0.0   -24.1    -5.1   -10.0   -50.0    32.0   -43.8   6.0    50.0
IAVON12Z ALFA A. UT   0 0 220.00     0.0     0.0     0.0     0.0     0.0     0.0     0.0     0.0   0.0     0.0
IAAVN121 ALFA AVIO    0 0 229.63     0.0     0.0     0.0     0.0     0.0     0.0     0.0     0.0   0.0     0.0
IALIN111 ALIANO       0 0 399.19    -2.5   -58.9     0.0     0.0     0.0     0.0     0.0     0.0   0.0     0.0
IALCN111 ALTOMON.CE   0 2 398.26     0.0     0.0  -208.6   -19.6  -152.0  -254.0   111.2  -240.7   4.0   253.7
IALCN211 ALTOMON.CE   0 2 398.26     0.0     0.0  -208.6   -19.6  -152.0  -254.0   111.2  -240.7   4.0   253.7
IALCN311 ALTOMON.CE   0 2 398.26     0.0     0.0  -234.8   -16.9   -83.0  -276.0    81.1  -218.6   5.0   276.5
IALSN111 ALTOMONTE    0 0 398.24     0.0     0.0     0.0     0.0     0.0     0.0     0.0     0.0   0.0     0.0
IANRN111 ANDRIA       0 0 393.04    25.2    72.4     0.0     0.0     0.0     0.0     0.0     0.0   0.0     0.0
IASGR111 APRIL.SORG   0 2 395.22     0.0     0.0  -235.1   -44.1   -33.0  -531.0   208.3  -273.9   5.0   531.0
IAPLR111 APRILIA380   0 0 395.17     0.0     0.0     0.0     0.0     0.0     0.0     0.0     0.0   0.0     0.0
IARBT121 ARBARELLO    0 0 232.92     5.9    -1.0     0.0     0.0     0.0     0.0     0.0     0.0   0.0     0.0
IAROVA21 ARCO         0 0 233.86    27.7    14.8     0.0     0.0     0.0     0.0     0.0     0.0   0.0     0.0
IARNN121 ARENELLA     0 0 229.83    49.1     3.8     0.0     0.0     0.0     0.0     0.0     0.0   0.0     0.0
IARCF121 AREZZO C     0 0 231.92     0.0     0.0     0.0     0.0     0.0     0.0     0.0     0.0   0.0     0.0
IARCFA21 AREZZO C     0 0 231.92     0.0     0.0     0.0     0.0     0.0     0.0     0.0     0.0   0.0     0.0
IISPM111 ARVEDI ST    0 0 409.46   467.8   -34.8     0.0     0.0     0.0     0.0     0.0     0.0   0.0     0.0
IASTN121 ASTRONI      0 0 230.02    23.3     4.3     0.0     0.0     0.0     0.0     0.0     0.0   0.0     0.0
IAURR21Z AURELIA      0 0 400.00     0.0     0.0     0.0     0.0     0.0     0.0     0.0     0.0   0.0     0.0
IAURRA11 AURELIA      0 0 397.65     0.0   255.0     0.0     0.0     0.0     0.0     0.0     0.0   0.0     0.0
IAUZV12Z AURONZO      0 0 220.00     0.0     0.0     0.0     0.0     0.0     0.0     0.0     0.0   0.0     0.0
IAUZV22Z AURONZO      0 0 220.00     0.0     0.0     0.0     0.0     0.0     0.0     0.0     0.0   0.0     0.0
IAUKV12Z AURONZO NK   0 0 220.00     0.0     0.0     0.0     0.0     0.0     0.0     0.0     0.0   0.0     0.0
IAVNN111 AVELLINO N   0 0 399.67     0.0     0.0     0.0     0.0     0.0     0.0     0.0     0.0   0.0     0.0
IAVNF121 AVENZA       0 0 236.74    92.8     7.0     0.0     0.0     0.0     0.0     0.0     0.0   0.0     0.0
IAVRN121 AVERSA       0 0 229.38    24.9     1.3     0.0     0.0     0.0     0.0     0.0     0.0   0.0     0.0
IAVITA21 AVISE        0 0 237.72     0.0     0.0     0.0     0.0     0.0     0.0     0.0     0.0   0.0     0.0
IAZTVA21 AZOTATI      0 0 234.64     1.1    -2.1     0.0     0.0     0.0     0.0     0.0     0.0   0.0     0.0
IBVZV121 B.VALS.ZI    0 0 230.87    67.6    41.4     0.0     0.0     0.0     0.0     0.0     0.0   0.0     0.0
IBAGM111 BAGGIO       0 0 409.97   197.9   -32.3     0.0     0.0     0.0     0.0     0.0     0.0   0.0     0.0
IBAGM121 BAGGIO       0 0 241.70     0.0     0.0     0.0     0.0     0.0     0.0     0.0     0.0   0.0     0.0
IBAGM122 BAGGIO       0 0 235.73     0.0     0.0     0.0     0.0     0.0     0.0     0.0     0.0   0.0     0.0
IBALT121 BALZOLA      0 0 231.45    64.6     8.2     0.0     0.0     0.0     0.0     0.0     0.0   0.0     0.0
IBASF111 BARGI        0 0 406.84     0.0     0.0     0.0     0.0     0.0     0.0     0.0     0.0   0.0     0.0
IBARF11Z BARGI CENT   0 0 400.00     0.0     0.0     0.0     0.0     0.0     0.0     0.0     0.0   0.0     0.0
IBARF21Z BARGI CENT   0 0 400.00     0.0     0.0     0.0     0.0     0.0     0.0     0.0     0.0   0.0     0.0
IBAON111 BARI O       0 0 398.01   -80.5    21.4     0.0     0.0     0.0     0.0     0.0     0.0   0.0     0.0
IBLSNA11 BELCAS.380   0 0 395.91    -0.8    -6.7     0.0     0.0     0.0     0.0     0.0     0.0   0.0     0.0
IABEV121 BELTRAME     0 0 234.09   141.4     2.4     0.0     0.0     0.0     0.0     0.0     0.0   0.0     0.0
IBLVMA21 BELVISO      0 2 233.27     0.0     0.0    -0.9    -2.8     0.0   -65.0    29.6   -55.6   4.0    65.0
IBN2N111 BENEVEN. 2   0 0 399.43    23.2   -42.7     0.0     0.0     0.0     0.0     0.0     0.0   0.0     0.0
IBN3N111 BENEVEN.3    0 0 399.62   -67.8   -71.5     0.0     0.0     0.0     0.0     0.0     0.0   0.0     0.0
IBIET121 BIELLA EST   0 0 233.09    40.0    -2.7     0.0     0.0     0.0     0.0     0.0     0.0   0.0     0.0
IBSAN111 BISAC.380    0 0 401.07   -11.9   -87.9     0.0     0.0     0.0     0.0     0.0     0.0   0.0     0.0
IBSAN11Z BISAC.380    0 0 400.00     0.0     0.0     0.0     0.0     0.0     0.0     0.0     0.0   0.0     0.0
IBISTA21 BISTAGNO     0 0 234.40   -13.6    14.0     0.0     0.0     0.0     0.0     0.0     0.0   0.0     0.0
IBOAV121 BOAZZO       0 0 234.45     0.0     0.0     0.0     0.0     0.0     0.0     0.0     0.0   0.0     0.0
IBLNN11Z BOLANO       0 0 400.00     0.0     0.0     0.0     0.0     0.0     0.0     0.0     0.0   0.0     0.0
IBLNN21Z BOLANO       0 0 400.00     0.0     0.0     0.0     0.0     0.0     0.0     0.0     0.0   0.0     0.0
IBLNN31Z BOLANO       0 0 400.00     0.0     0.0     0.0     0.0     0.0     0.0     0.0     0.0   0.0     0.0
IBLNN41Z BOLANO       0 0 400.00     0.0     0.0     0.0     0.0     0.0     0.0     0.0     0.0   0.0     0.0
IBLNNF11 BOLANO       0 0 404.99  -670.7   -39.0     0.0     0.0     0.0     0.0     0.0     0.0   0.0     0.0
IBZEVA21 BOLZANO      0 0 240.31    13.8     8.1     0.0     0.0     0.0     0.0     0.0     0.0   0.0     0.0
IBVSV121 BORGOVALSU   0 0 230.94    13.2    -9.0     0.0     0.0     0.0     0.0     0.0     0.0   0.0     0.0
IBOVM111 BOVISIO      0 0 411.54   311.0   -62.2     0.0     0.0     0.0     0.0     0.0     0.0   0.0     0.0
IBRAN111 BRIALL       0 0 391.96     0.0     0.0     0.0     0.0     0.0     0.0     0.0     0.0   0.0     0.0
IBSCN111 BRIN. S CE   0 2 393.52     9.2    12.6  -366.3   -72.0  -205.0  -660.0   222.1  -387.3   5.0   660.0
IBSCN211 BRIN. S CE   0 0 392.77     0.2    -7.5     0.0     0.0     0.0     0.0     0.0     0.0   0.0     0.0
IBSCN311 BRIN. S CE   0 0 392.61     8.8     9.4     0.0     0.0     0.0     0.0     0.0     0.0   0.0     0.0
IBSCN411 BRIN. S CE   0 2 393.50     9.9     7.1  -221.7   -78.9  -205.0  -660.0   260.3  -382.5   5.0   660.0
IBSSN111 BRIN. S ST   0 0 392.67   -36.0   224.5     0.0     0.0     0.0     0.0     0.0     0.0   0.0     0.0
IBRIN311 BRINDISI     0 2 392.43     0.0     0.0     0.1    55.1     0.0     0.0   125.0  -290.0   0.0     0.0
IBRIN411 BRINDISI     0 2 392.43     0.0     0.0     0.1    56.4     0.0     0.0   125.0  -290.0   0.0     0.0
IBRINA11 BRINDISI     0 0 392.48   -25.5   -71.7     0.0     0.0     0.0     0.0     0.0     0.0   0.0     0.0
IBRINA2Z BRINDISI     0 0 220.00     0.0     0.0     0.0     0.0     0.0     0.0     0.0     0.0   0.0     0.0
IBRNN111 BRINDISI N   0 2 391.65     0.0     0.0    -0.1   116.5     0.0     0.0   302.3  -579.6   0.0     0.0
IBRNN12Z BRINDISI N   0 0 220.00     0.0     0.0     0.0     0.0     0.0     0.0     0.0     0.0   0.0     0.0
IVEAM121 BRUGH. AL    0 0 240.64     0.0     0.0     0.0     0.0     0.0     0.0     0.0     0.0   0.0     0.0
IBRUM111 BRUGHERIO    0 0 410.97   254.3    -9.7     0.0     0.0     0.0     0.0     0.0     0.0   0.0     0.0
IBRUM121 BRUGHERIO    0 0 241.03     0.0     0.0     0.0     0.0     0.0     0.0     0.0     0.0   0.0     0.0
IBRUM122 BRUGHERIO    0 0 236.29     0.0     0.0     0.0     0.0     0.0     0.0     0.0     0.0   0.0     0.0
IBRSN121 BRUSCIANO    0 0 229.52    22.1     1.7     0.0     0.0     0.0     0.0     0.0     0.0   0.0     0.0
IBUIV121 BUIA         0 0 231.96     0.0     0.0     0.0     0.0     0.0     0.0     0.0     0.0   0.0     0.0
IBULM111 BULCIAGO     0 0 412.92   426.9   -55.9     0.0     0.0     0.0     0.0     0.0     0.0   0.0     0.0
IBUSVA21 BUSSOL. SS   0 0 236.56    94.8   -52.0     0.0     0.0     0.0     0.0     0.0     0.0   0.0     0.0
ICAGMA11 CAGNO        0 0 412.01   134.8   -11.7     0.0     0.0     0.0     0.0     0.0     0.0   0.0     0.0
ICAIN121 CAIVANO      0 0 229.26    49.0     8.9     0.0     0.0     0.0     0.0     0.0     0.0   0.0     0.0
ICALF111 CALENZANO    0 0 406.53   296.9    12.1     0.0     0.0     0.0     0.0     0.0     0.0   0.0     0.0
ICALF121 CALENZANO    0 0 234.89     0.0     0.0     0.0     0.0     0.0     0.0     0.0     0.0   0.0     0.0
ICAMV111 CAMIN        0 0 408.21   211.2  -120.7     0.0     0.0     0.0     0.0     0.0     0.0   0.0     0.0
ICAMV121 CAMIN        0 0 233.87    96.2    -9.2     0.0     0.0     0.0     0.0     0.0     0.0   0.0     0.0
ICMOM121 CAMPO MORO   0 0 220.00     0.0     0.0     0.0     0.0     0.0     0.0     0.0     0.0   0.0     0.0
ICMOM12M CAMPO MORO   0 0 240.43     0.0     0.0     0.0     0.0     0.0     0.0     0.0     0.0   0.0     0.0
ICCHT121 CAMPOCHIES   0 0 235.18    84.5    -8.2     0.0     0.0     0.0     0.0     0.0     0.0   0.0     0.0
ICMPTA21 CAMPOROSSO   0 0 236.94    58.0     3.1     0.0     0.0     0.0     0.0     0.0     0.0   0.0     0.0
ICMPTA22 CAMPOROSSO   0 0 237.16     0.0     0.0     0.0     0.0     0.0     0.0     0.0     0.0   0.0     0.0
ICDLN111 CANDELA      0 2 397.04     0.0     0.0  -353.2   -17.9  -192.8  -390.0   129.9  -290.0   4.3   390.0
ICANR111 CANDIA       0 0 400.00     0.0     0.0     0.0     0.0     0.0     0.0     0.0     0.0   0.0     0.0
ICANR11M CANDIA       0 0 400.65     0.0     0.0     0.0     0.0     0.0     0.0     0.0     0.0   0.0     0.0
ICANR11N CANDIA       0 0 400.65     0.0     0.0     0.0     0.0     0.0     0.0     0.0     0.0   0.0     0.0
ICANR311 CANDIA       0 0 400.65     0.0     0.0     0.0     0.0     0.0     0.0     0.0     0.0   0.0     0.0
ICANRA11 CANDIA       0 0 400.65   120.2     3.7     0.0     0.0     0.0     0.0     0.0     0.0   0.0     0.0
ICANR12Z CANDIA       0 0 220.00     0.0     0.0     0.0     0.0     0.0     0.0     0.0     0.0   0.0     0.0
ICANRA2Z CANDIA       0 0 220.00     0.0     0.0     0.0     0.0     0.0     0.0     0.0     0.0   0.0     0.0
ICAOM111 CAORSO       0 0 408.86     0.0     0.0     0.0     0.0     0.0     0.0     0.0     0.0   0.0     0.0
ICAPN121 CAPRIATI     0 0 228.85     0.0     0.0     0.0     0.0     0.0     0.0     0.0     0.0   0.0     0.0
ICARV121 CARDANO      0 0 229.55   -41.5   -62.3     0.0     0.0     0.0     0.0     0.0     0.0   0.0     0.0
ICRCV121 CARDANO CE   0 0 229.55     0.0     0.0     0.0     0.0     0.0     0.0     0.0     0.0   0.0     0.0
ICRCV122 CARDANO CE   0 0 229.55    -0.0    -0.0     0.0     0.0     0.0     0.0     0.0     0.0   0.0     0.0
ICAKV121 CARDANO NK   0 0 228.16     0.0     0.0     0.0     0.0     0.0     0.0     0.0     0.0   0.0     0.0
ICFOF111 CARPI FOSS   0 0 407.66   161.7    38.3     0.0     0.0     0.0     0.0     0.0     0.0   0.0     0.0
ICLNN111 CAS/ETA380   0 0 397.39    -1.4   -11.3     0.0     0.0     0.0     0.0     0.0     0.0   0.0     0.0
ICSVN121 CASALNUOVO   0 0 229.72    27.9    -3.3     0.0     0.0     0.0     0.0     0.0     0.0   0.0     0.0
ICSNT111 CASANOVA     0 0 405.46   150.9    14.4     0.0     0.0     0.0     0.0     0.0     0.0   0.0     0.0
ICSNT121 CASANOVA     0 0 232.64     0.0     0.0     0.0     0.0     0.0     0.0     0.0     0.0   0.0     0.0
ICSNT12M CASANOVA     0 0 234.80     0.0     0.0     0.0     0.0     0.0     0.0     0.0     0.0   0.0     0.0
ILCZM11Z CASELLA ST   0 0 400.00     0.0     0.0     0.0     0.0     0.0     0.0     0.0     0.0   0.0     0.0
ILCZMA11 CASELLA ST   0 0 407.60    11.1    -0.9     0.0     0.0     0.0     0.0     0.0     0.0   0.0     0.0
ICSLFA11 CASELLINA    0 0 406.75   100.6    84.6     0.0     0.0     0.0     0.0     0.0     0.0   0.0     0.0
ICSRN121 CASORIA      0 0 229.48    73.8    15.2     0.0     0.0     0.0     0.0     0.0     0.0   0.0     0.0
ICS2N121 CASORIA 2    0 0 229.86    21.3    -1.2     0.0     0.0     0.0     0.0     0.0     0.0   0.0     0.0
ICSSM111 CASSANO      0 0 413.57     0.0     0.0     0.0     0.0     0.0     0.0     0.0     0.0   0.0     0.0
ICSSM211 CASSANO      0 0 413.57     0.0     0.0     0.0     0.0     0.0     0.0     0.0     0.0   0.0     0.0
ICSSM311 CASSANO      0 0 413.57     0.0     0.0     0.0     0.0     0.0     0.0     0.0     0.0   0.0     0.0
ICSSM12Z CASSANO      0 0 220.00     0.0     0.0     0.0     0.0     0.0     0.0     0.0     0.0   0.0     0.0
ICSSM221 CASSANO      0 0 241.31     0.0     0.0     0.0     0.0     0.0     0.0     0.0     0.0   0.0     0.0
ICSSMA21 CASSANO      0 0 241.38     0.0     0.0     0.0     0.0     0.0     0.0     0.0     0.0   0.0     0.0
ICSAMA21 CASSANO CS   0 0 238.89     0.0     0.0     0.0     0.0     0.0     0.0     0.0     0.0   0.0     0.0
ICAGV121 CASTEGNERO   0 0 235.10    21.5     5.9     0.0     0.0     0.0     0.0     0.0     0.0   0.0     0.0
ICBEV121 CASTELBELL   0 2 242.32    13.2    12.9   -23.4    -4.5     0.0   -72.0    48.0   -77.5   6.0    72.0
ICASN121 CASTELL.     0 0 229.90    85.5     9.7     0.0     0.0     0.0     0.0     0.0     0.0   0.0     0.0
ICTNT111 CASTELN.S    0 0 406.49   130.6   -12.6     0.0     0.0     0.0     0.0     0.0     0.0   0.0     0.0
ICAVV121 CAVILLA      0 2 233.93     0.0     0.0    -5.0     6.2    -6.0   -24.0    22.0   -32.0   4.0    24.0
ICVAV121 CAVILLA NK   0 0 233.93     0.0     0.0     0.0     0.0     0.0     0.0     0.0     0.0   0.0     0.0
ICDGM121 CEDEG. SUD   0 0 230.57   -37.2    85.1     0.0     0.0     0.0     0.0     0.0     0.0   0.0     0.0
ICMDN121 CEMENT.MAD   0 0 229.39     0.0     1.3     0.0     0.0     0.0     0.0     0.0     0.0   0.0     0.0
ICTEN12Z CEN.EN.TEV   0 0 220.00     0.0     0.0     0.0     0.0     0.0     0.0     0.0     0.0   0.0     0.0
ICEPR111 CEPAGATTI    0 0 392.23     0.0  -283.6     0.0     0.0     0.0     0.0     0.0     0.0   0.0     0.0
ICEPR211 CEPAGATTI    0 0 392.38     0.0     0.0     0.0     0.0     0.0     0.0     0.0     0.0   0.0     0.0
ICEPR121 CEPAGATTI    0 0 184.25   612.0   306.0     0.0     0.0     0.0     0.0     0.0     0.0   0.0     0.0
ICEPR22Z CEPAGATTI    0 0 205.00     0.0     0.0     0.0     0.0     0.0     0.0     0.0     0.0   0.0     0.0
ICPNR111 CEPRANO380   0 0 396.86   144.6   -15.2     0.0     0.0     0.0     0.0     0.0     0.0   0.0     0.0
ICESMA21 CESANO M.    0 0 233.04    -0.2    59.5     0.0     0.0     0.0     0.0     0.0     0.0   0.0     0.0
ICHZT121 CHATILL.SE   0 0 236.31    36.7    10.5     0.0     0.0     0.0     0.0     0.0     0.0   0.0     0.0
ICHRM111 CHIARI ST    0 0 413.31   145.5    -0.1     0.0     0.0     0.0     0.0     0.0     0.0   0.0     0.0
ICHPM111 CHIGNOLO     0 0 408.02     0.0     0.0     0.0     0.0     0.0     0.0     0.0     0.0   0.0     0.0
ICHTT111 CHIVAS. CE   0 2 406.45     0.0     0.0  -727.1   -65.3  -492.0  -860.0   275.3  -528.2   5.0   861.0
ICHTT121 CHIVAS. CE   0 2 231.31     0.0     0.0  -260.5   106.6  -245.0  -412.0   237.3  -450.8   5.0   412.0
ICHIT111 CHIVASSO S   0 0 406.40     0.0     0.0     0.0     0.0     0.0     0.0     0.0     0.0   0.0     0.0
ICIMVA21 CIMEGO       0 0 234.43     0.0    -1.3     0.0     0.0     0.0     0.0     0.0     0.0   0.0     0.0
ICICV121 CIMEGO CE    0 0 234.43     0.0     0.0     0.0     0.0     0.0     0.0     0.0     0.0   0.0     0.0
ICICV221 CIMEGO CE    0 0 234.43     0.0     0.0     0.0     0.0     0.0     0.0     0.0     0.0   0.0     0.0
ICSEM111 CISERANO     0 0 408.10   350.8   -15.1     0.0     0.0     0.0     0.0     0.0     0.0   0.0     0.0
ICISM111 CISLAGO      0 0 411.73   163.4    33.7     0.0     0.0     0.0     0.0     0.0     0.0   0.0     0.0
ICISMB21 CISLAGO      0 0 239.52    86.4     3.9     0.0     0.0     0.0     0.0     0.0     0.0   0.0     0.0
ICITV121 CITTADELLA   0 0 234.61    34.0    -3.4     0.0     0.0     0.0     0.0     0.0     0.0   0.0     0.0
ISNDTA2Z COFELY SET   0 0 220.00     0.0     0.0     0.0     0.0     0.0     0.0     0.0     0.0   0.0     0.0
IDEAT121 COGNE IC     0 0 237.50     0.0     0.0     0.0     0.0     0.0     0.0     0.0     0.0   0.0     0.0
IDELT121 COGNE UT     0 0 237.45    49.6    33.6     0.0     0.0     0.0     0.0     0.0     0.0   0.0     0.0
ICLAVA21 COLA'        0 0 236.53     0.0     0.0     0.0     0.0     0.0     0.0     0.0     0.0   0.0     0.0
ICOAN121 COLLI AMIN   0 0 229.77    28.3     6.3     0.0     0.0     0.0     0.0     0.0     0.0   0.0     0.0
ICLRF121 COLORNO      0 0 238.67    17.0    -5.3     0.0     0.0     0.0     0.0     0.0     0.0   0.0     0.0
ICOLFA11 COLUNGA      0 0 406.57   176.9   -12.9     0.0     0.0     0.0     0.0     0.0     0.0   0.0     0.0
ICOLFA21 COLUNGA      0 0 235.11     0.0     0.0     0.0     0.0     0.0     0.0     0.0     0.0   0.0     0.0
ICONV121 CONEGLIANO   0 0 234.42    31.7     1.5     0.0     0.0     0.0     0.0     0.0     0.0   0.0     0.0
ICRDV111 CORDIGNANO   0 0 409.93   128.4   -23.1     0.0     0.0     0.0     0.0     0.0     0.0   0.0     0.0
ICMAM121 CORMANO      0 0 241.43     0.0     0.0     0.0     0.0     0.0     0.0     0.0     0.0   0.0     0.0
ICRWM111 CREMONA      0 0 409.48    92.0   -13.3     0.0     0.0     0.0     0.0     0.0     0.0   0.0     0.0
IDMNM121 DALMINE BG   0 0 239.42     0.0     0.0     0.0     0.0     0.0     0.0     0.0     0.0   0.0     0.0
IDALM121 DALMINE ST   0 0 239.50     0.0     0.0     0.0     0.0     0.0     0.0     0.0     0.0   0.0     0.0
IDELN111 DELICETO     0 0 396.98   -17.2   187.0     0.0     0.0     0.0     0.0     0.0     0.0   0.0     0.0
IDGNN121 DOGANELLA    0 0 230.06    56.3     8.0     0.0     0.0     0.0     0.0     0.0     0.0   0.0     0.0
IDOLV111 DOLO         0 0 406.95    10.1   199.8     0.0     0.0     0.0     0.0     0.0     0.0   0.0     0.0
IDOLV121 DOLO         0 0 234.49    51.6    -3.9     0.0     0.0     0.0     0.0     0.0     0.0   0.0     0.0
IDUSV111 DUGALE       0 0 407.91   323.2    25.8     0.0     0.0     0.0     0.0     0.0     0.0   0.0     0.0
IDUSV121 DUGALE       0 0 235.70     0.0     0.0     0.0     0.0     0.0     0.0     0.0     0.0   0.0     0.0
IEDOM111 EDOLO        0 0 417.83     0.0     0.0     0.0     0.0     0.0     0.0     0.0     0.0   0.0     0.0
IEDOM112 EDOLO        0 0 417.83     0.0     0.0     0.0     0.0     0.0     0.0     0.0     0.0   0.0     0.0
IEDOM211 EDOLO        0 0 417.82     0.0     0.0     0.0     0.0     0.0     0.0     0.0     0.0   0.0     0.0
IEPBN111 ENIPOW. BR   0 2 391.87    48.4    68.9  -632.5   268.6   -90.0 -1134.0   493.6  -975.8   5.0  1134.0
IECRF111 ENIPOW.RA    0 2 404.64    40.2    31.2  -452.7    14.1  -409.0  -800.0   321.1  -651.8   5.0   800.0
IETQT111 ENTRACQUE    0 0 407.01     0.0     0.0     0.0     0.0     0.0     0.0     0.0     0.0   0.0     0.0
IEONT111 EON L.FERR   0 2 405.52     0.0     0.0  -367.7   178.0  -240.0  -530.0   104.1  -312.8   5.0   530.0
IECHNA11 ERCHIE       0 0 390.70   -11.6   171.7     0.0     0.0     0.0     0.0     0.0     0.0   0.0     0.0
IERCN121 ERCOLANO     0 0 229.68    44.0     1.2     0.0     0.0     0.0     0.0     0.0     0.0   0.0     0.0
IERZT121 ERZELLI      0 0 234.14   124.2     4.6     0.0     0.0     0.0     0.0     0.0     0.0   0.0     0.0
IERZTA21 ERZELLI      0 0 220.00     0.0     0.0     0.0     0.0     0.0     0.0     0.0     0.0   0.0     0.0
IERZTA2M ERZELLI      0 0 234.14     0.0     0.0     0.0     0.0     0.0     0.0     0.0     0.0   0.0     0.0
IFADVA21 FADALTO      0 0 234.46     0.0     0.0     0.0     0.0     0.0     0.0     0.0     0.0   0.0     0.0
IFNOR111 FANO E.T.    0 0 403.80   102.8   -18.8     0.0     0.0     0.0     0.0     0.0     0.0   0.0     0.0
IFNOR211 FANO E.T.    0 0 403.80     0.0     0.0     0.0     0.0     0.0     0.0     0.0     0.0   0.0     0.0
IFRLN111 FEROLETO     0 0 396.33     0.0   212.1     0.0     0.0     0.0     0.0     0.0     0.0   0.0     0.0
IFERF111 FERRARA F.   0 0 406.46    36.8   -79.7     0.0     0.0     0.0     0.0     0.0     0.0   0.0     0.0
IFENF111 FERRARA N.   0 0 406.11     0.0     0.0     0.0     0.0     0.0     0.0     0.0     0.0   0.0     0.0
IFRBM111 FERRERA E.   0 2 403.27    22.7     5.4  -179.8    46.0   -30.0  -387.0   189.4  -348.7   5.0   386.3
IFRBM112 FERRERA E.   0 2 402.33    35.3    14.0  -143.9   202.0   -30.0  -387.0   190.9  -358.1   5.0   386.3
IFENV121 FERRIERE N   0 0 231.64   163.7    34.7     0.0     0.0     0.0     0.0     0.0     0.0   0.0     0.0
IFAUN121 FIAT AUTO    0 0 229.30    27.9     2.5     0.0     0.0     0.0     0.0     0.0     0.0   0.0     0.0
IFAUN12M FIAT AUTO    0 0 229.52     0.0     0.0     0.0     0.0     0.0     0.0     0.0     0.0   0.0     0.0
IFMIT121 FIAT MIR.    0 0 232.98    32.1     6.8     0.0     0.0     0.0     0.0     0.0     0.0   0.0     0.0
IFIBN121 FIBE A.      0 2 229.57     0.0     0.0   -79.9    49.6   -25.0  -120.0    59.0  -106.0   5.0   120.0
IFRIT31Z FIL          0 0 380.00     0.0     0.0     0.0     0.0     0.0     0.0     0.0     0.0   0.0     0.0
IFRIT411 FIL          0 0 404.32     0.0     0.0     0.0     0.0     0.0     0.0     0.0     0.0   0.0     0.0
IFLEM111 FLERO ST     0 0 410.71   592.6   -17.8     0.0     0.0     0.0     0.0     0.0     0.0   0.0     0.0
IFOGN11Z FOGGIA       0 0 400.00     0.0     0.0     0.0     0.0     0.0     0.0     0.0     0.0   0.0     0.0
IFOGNA11 FOGGIA       0 0 396.31   -78.8  -130.4     0.0     0.0     0.0     0.0     0.0     0.0   0.0     0.0
IFGPN111 FOGGIA PST   0 0 396.32     0.0     0.0     0.0     0.0     0.0     0.0     0.0     0.0   0.0     0.0
IFGPN112 FOGGIA PST   0 0 398.30     0.0     0.0     0.0     0.0     0.0     0.0     0.0     0.0   0.0     0.0
IFGPN113 FOGGIA PST   0 0 397.08     0.0     0.0     0.0     0.0     0.0     0.0     0.0     0.0   0.0     0.0
ISFLF111 FONTELUPO    0 0 407.54     0.0     0.0     0.0     0.0     0.0     0.0     0.0     0.0   0.0     0.0
IFORF111 FORLI'       0 0 404.14    91.1   258.7     0.0     0.0     0.0     0.0     0.0     0.0   0.0     0.0
IFRANA21 FRATTA       0 0 229.35    91.9    75.5     0.0     0.0     0.0     0.0     0.0     0.0   0.0     0.0
IFACN121 FRI-EL ACE   0 0 229.59   -91.4    16.0     0.0     0.0     0.0     0.0     0.0     0.0   0.0     0.0
IFSNV111 FUSINA CE    0 2 406.59     0.0     0.0  -254.4    65.5  -120.0  -329.0    75.1  -209.0   5.0   329.0
IFSNV121 FUSINA CE    0 0 234.51     0.0     0.0     0.0     0.0     0.0     0.0     0.0     0.0   0.0     0.0
IGADM12Z GADIO        0 0 220.00     0.0     0.0     0.0     0.0     0.0     0.0     0.0     0.0   0.0     0.0
IGADMA21 GADIO        0 0 220.00     0.0     0.0     0.0     0.0     0.0     0.0     0.0     0.0   0.0     0.0
IGADMA23 GADIO        0 0 241.83    20.8    -0.2     0.0     0.0     0.0     0.0     0.0     0.0   0.0     0.0
IGADMA24 GADIO        0 0 241.61    17.0    -3.2     0.0     0.0     0.0     0.0     0.0     0.0   0.0     0.0
IGADMA25 GADIO        0 0 241.57    29.3    -1.4     0.0     0.0     0.0     0.0     0.0     0.0   0.0     0.0
IGLNN111 GALATINA     0 0 391.03     0.0     0.0     0.0     0.0     0.0     0.0     0.0     0.0   0.0     0.0
IGLNN112 GALATINA     0 0 393.23   -87.5   -76.1     0.0     0.0     0.0     0.0     0.0     0.0   0.0     0.0
IGLNN411 GALATINA     0 0 393.19     0.3  -107.6     0.0     0.0     0.0     0.0     0.0     0.0   0.0     0.0
IGLNN511 GALATINA     0 0 391.03     3.3     1.6     0.0     0.0     0.0     0.0     0.0     0.0   0.0     0.0
IGALR12Z GALLETO      0 0 220.00     0.0     0.0     0.0     0.0     0.0     0.0     0.0     0.0   0.0     0.0
IGALR221 GALLETO      0 0 227.70     0.0     0.0     0.0     0.0     0.0     0.0     0.0     0.0   0.0     0.0
IGDAM121 GANDA        0 2 233.20     0.0     0.0    -0.8    12.0     0.0   -64.0    35.0   -55.3   4.4    63.5
IGRGN111 GARAGUSO     0 0 399.12    -9.4    -4.0     0.0     0.0     0.0     0.0     0.0     0.0   0.0     0.0
IGARM121 GARGNANO     0 0 234.64     0.0     0.0     0.0     0.0     0.0     0.0     0.0     0.0   0.0     0.0
IGASN111 GARIGL. ST   0 0 398.03   129.6   -19.8     0.0     0.0     0.0     0.0     0.0     0.0   0.0     0.0
IGASN21Z GARIGL. ST   0 0 400.00     0.0     0.0     0.0     0.0     0.0     0.0     0.0     0.0   0.0     0.0
IGNZN111 GENZANO380   0 0 403.47     0.0     0.0     0.0     0.0     0.0     0.0     0.0     0.0   0.0     0.0
IGERT121 GERBIDO      0 0 233.12     0.0     0.0     0.0     0.0     0.0     0.0     0.0     0.0   0.0     0.0
IGSSR111 GISSI        0 0 392.33     0.0     0.0     0.0     0.0     0.0     0.0     0.0     0.0   0.0     0.0
IGSSRA11 GISSI        0 0 400.00     0.0     0.0     0.0     0.0     0.0     0.0     0.0     0.0   0.0     0.0
IGSSRA1M GISSI        0 0 392.33     0.0     0.0     0.0     0.0     0.0     0.0     0.0     0.0   0.0     0.0
IGSSRA1N GISSI        0 0 392.33     0.0     0.0     0.0     0.0     0.0     0.0     0.0     0.0   0.0     0.0
IGSCR111 GISSI CE     0 0 392.33     0.0     0.0     0.0     0.0     0.0     0.0     0.0     0.0   0.0     0.0
IGSCR211 GISSI CE     0 0 392.33     0.0     0.0     0.0     0.0     0.0     0.0     0.0     0.0   0.0     0.0
IGLOV121 GLORENZA     0 0 243.97     0.0    -5.5     0.0     0.0     0.0     0.0     0.0     0.0   0.0     0.0
IGLZV121 GLORENZACE   0 0 220.00     0.0     0.0     0.0     0.0     0.0     0.0     0.0     0.0   0.0     0.0
IGLZV12M GLORENZACE   0 0 243.97     0.0     0.0     0.0     0.0     0.0     0.0     0.0     0.0   0.0     0.0
IGLAV121 GLORENZANK   0 0 243.26     0.0     0.0     0.0     0.0     0.0     0.0     0.0     0.0   0.0     0.0
IGORM111 GORLAGO      0 0 414.84   207.7   -45.1     0.0     0.0     0.0     0.0     0.0     0.0   0.0     0.0
IGRAN121 GRAGNANO     0 0 229.10    -1.4    -2.9     0.0     0.0     0.0     0.0     0.0     0.0   0.0     0.0
IGRSMA21 GROSIO       0 0 245.33     0.6     0.1     0.0     0.0     0.0     0.0     0.0     0.0   0.0     0.0
IGRTM121 GROSOTTO     0 0 245.37   -39.8   -24.1     0.0     0.0     0.0     0.0     0.0     0.0   0.0     0.0
IGRUTA21 GRUGLIASCO   0 0 233.11    22.8    -1.3     0.0     0.0     0.0     0.0     0.0     0.0   0.0     0.0
IRIVN121 ILVA-RIV     0 0 220.00     0.0     0.0     0.0     0.0     0.0     0.0     0.0     0.0   0.0     0.0
IRIVN122 ILVA-RIV     0 0 228.30     0.0     0.0     0.0     0.0     0.0     0.0     0.0     0.0   0.0     0.0
IRIVN12M ILVA-RIV     0 0 225.15     0.0     0.0     0.0     0.0     0.0     0.0     0.0     0.0   0.0     0.0
IRIVN12N ILVA-RIV     0 0 225.15     0.0     0.0     0.0     0.0     0.0     0.0     0.0     0.0   0.0     0.0
ISSRN121 ILVA-SSR     0 0 225.15     9.1    24.8     0.0     0.0     0.0     0.0     0.0     0.0   0.0     0.0
ISSRN12M ILVA-SSR     0 0 228.30     0.0     0.0     0.0     0.0     0.0     0.0     0.0     0.0   0.0     0.0
IITCT121 ILVA.CORNI   0 0 234.09    35.3    26.6     0.0     0.0     0.0     0.0     0.0     0.0   0.0     0.0
IISEN121 ISE CET3     0 0 228.30     0.0     0.0     0.0     0.0     0.0     0.0     0.0     0.0   0.0     0.0
IISEN12M ISE CET3     0 0 225.18     0.0     0.0     0.0     0.0     0.0     0.0     0.0     0.0   0.0     0.0
IITNT121 ITAL NOVI    0 0 233.69    31.4    19.7     0.0     0.0     0.0     0.0     0.0     0.0   0.0     0.0
IKOTR111 KOTOR        0 0 420.09     0.0  -231.6     0.0     0.0     0.0     0.0     0.0     0.0   0.0     0.0
IKOTR211 KOTOR        0 0 420.14     0.0    79.4     0.0     0.0     0.0     0.0     0.0     0.0   0.0     0.0
IKOTR121 KOTOR        0 0 184.23  -600.0   300.0     0.0     0.0     0.0     0.0     0.0     0.0   0.0     0.0
IKOTR22Z KOTOR        0 0 205.00     0.0     0.0     0.0     0.0     0.0     0.0     0.0     0.0   0.0     0.0
ILCSM111 LA CASELLA   0 0 407.60     0.0     0.0     0.0     0.0     0.0     0.0     0.0     0.0   0.0     0.0
ILCSM21Z LA CASELLA   0 0 400.00     0.0     0.0     0.0     0.0     0.0     0.0     0.0     0.0   0.0     0.0
ILCSM311 LA CASELLA   0 2 407.49     0.0     0.0  -341.4   120.0  -265.0  -368.0   233.8  -424.3   5.0   367.5
ILCSM411 LA CASELLA   0 2 407.49     0.0     0.0  -332.5   119.4  -265.0  -368.0   239.4  -424.3   5.0   367.5
ICSIT11Z LABOR.CESI   0 0 400.00     0.0     0.0     0.0     0.0     0.0     0.0     0.0     0.0   0.0     0.0
ICSIT12Z LABOR.CESI   0 0 220.00     0.0     0.0     0.0     0.0     0.0     0.0     0.0     0.0   0.0     0.0
ILACM111 LACCHIAREL   0 0 408.50   353.2    42.1     0.0     0.0     0.0     0.0     0.0     0.0   0.0     0.0
ILAIN111 LAINO        0 0 397.29    16.7  -115.5     0.0     0.0     0.0     0.0     0.0     0.0   0.0     0.0
ILAIN12Z LAINO        0 0 220.00     0.0     0.0     0.0     0.0     0.0     0.0     0.0     0.0   0.0     0.0
ILAMMA21 LAMBRATE     0 0 241.67    57.5    -3.9     0.0     0.0     0.0     0.0     0.0     0.0   0.0     0.0
ILANV121 LANA         0 2 231.20     0.0     0.0    -2.0     2.1   -10.0   -40.0    25.9   -36.1   4.0    40.0
ILANV12M LANA         0 0 227.02     0.0     0.0     0.0     0.0     0.0     0.0     0.0     0.0   0.0     0.0
ILZDMA21 LANZADA      0 0 240.43     0.0     0.0     0.0     0.0     0.0     0.0     0.0     0.0   0.0     0.0
ILARR111 LARINO       0 0 392.94    29.3   -49.3     0.0     0.0     0.0     0.0     0.0     0.0   0.0     0.0
ILK2V121 LASA NK 2    0 0 243.26     0.0     0.0     0.0     0.0     0.0     0.0     0.0     0.0   0.0     0.0
ILATR111 LATINA NUC   0 0 394.69   146.5   -49.3     0.0     0.0     0.0     0.0     0.0     0.0   0.0     0.0
ILATR211 LATINA NUC   0 0 394.63     0.0  -105.9     0.0     0.0     0.0     0.0     0.0     0.0   0.0     0.0
ILATR311 LATINA NUC   0 0 394.62     0.0   -93.6     0.0     0.0     0.0     0.0     0.0     0.0   0.0     0.0
ILATR41Z LATINA NUC   0 0 400.00     0.0     0.0     0.0     0.0     0.0     0.0     0.0     0.0   0.0     0.0
ILATR121 LATINA NUC   0 0 197.43  -329.2   164.6     0.0     0.0     0.0     0.0     0.0     0.0   0.0     0.0
ILATR221 LATINA NUC   0 0 197.43  -329.2   164.6     0.0     0.0     0.0     0.0     0.0     0.0   0.0     0.0
ILVSV121 LAVIS        0 0 231.48    18.0   -11.1     0.0     0.0     0.0     0.0     0.0     0.0   0.0     0.0
ISLRF111 LE ROSE      0 0 407.61     0.0     0.0     0.0     0.0     0.0     0.0     0.0     0.0   0.0     0.0
IMATT121 LEVANNA      0 0 233.00    26.7    -0.3     0.0     0.0     0.0     0.0     0.0     0.0   0.0     0.0
ILEYTA11 LEYNI        0 0 404.19   105.3    28.3     0.0     0.0     0.0     0.0     0.0     0.0   0.0     0.0
ILEYTA21 LEYNI        0 0 233.06     0.0     0.0     0.0     0.0     0.0     0.0     0.0     0.0   0.0     0.0
ILNTM111 LONATO       0 0 412.41   184.7   -26.8     0.0     0.0     0.0     0.0     0.0     0.0   0.0     0.0
IMCON111 M/CORVINO    0 0 394.14   208.2     0.3     0.0     0.0     0.0     0.0     0.0     0.0   0.0     0.0
IMCON121 M/CORVINO    0 0 228.02     0.0     0.0     0.0     0.0     0.0     0.0     0.0     0.0   0.0     0.0
IMDTN12Z MADD T-GAS   0 0 220.00     0.0     0.0     0.0     0.0     0.0     0.0     0.0     0.0   0.0     0.0
IMDTN22Z MADD T-GAS   0 0 220.00     0.0     0.0     0.0     0.0     0.0     0.0     0.0     0.0   0.0     0.0
IMADN121 MADDALONI    0 0 229.39    18.7     6.9     0.0     0.0     0.0     0.0     0.0     0.0   0.0     0.0
IMAGM11Z MAGENTA ST   0 0 400.00     0.0     0.0     0.0     0.0     0.0     0.0     0.0     0.0   0.0     0.0
IMAGM12Z MAGENTA ST   0 0 220.00     0.0     0.0     0.0     0.0     0.0     0.0     0.0     0.0   0.0     0.0
IMAGMA21 MAGENTA ST   0 0 220.00    65.3   -11.7     0.0     0.0     0.0     0.0     0.0     0.0   0.0     0.0
IMAGMA22 MAGENTA ST   0 0 239.78     7.7     3.9     0.0     0.0     0.0     0.0     0.0     0.0   0.0     0.0
IMGNN111 MAGISANO     0 0 397.20     0.0     0.0     0.0     0.0     0.0     0.0     0.0     0.0   0.0     0.0
IMGLT111 MAGLIANO     0 0 406.54   106.8    15.6     0.0     0.0     0.0     0.0     0.0     0.0   0.0     0.0
IMDAN111 MAIDA        0 0 396.62   -55.9   162.6     0.0     0.0     0.0     0.0     0.0     0.0   0.0     0.0
IMDAN21Z MAIDA        0 0 400.00     0.0     0.0     0.0     0.0     0.0     0.0     0.0     0.0   0.0     0.0
IMDAN31Z MAIDA        0 0 400.00     0.0     0.0     0.0     0.0     0.0     0.0     0.0     0.0   0.0     0.0
IMACVA21 MALCONTENT   0 0 234.63     0.0     0.0     0.0     0.0     0.0     0.0     0.0     0.0   0.0     0.0
IMLOM111 MALEO        0 0 408.77    47.7   -12.2     0.0     0.0     0.0     0.0     0.0     0.0   0.0     0.0
IMNFN111 MANFR.380    0 0 395.46    -1.1    -4.7     0.0     0.0     0.0     0.0     0.0     0.0   0.0     0.0
IMTVM111 MANTOVA CE   0 0 407.93    10.3    29.9     0.0     0.0     0.0     0.0     0.0     0.0   0.0     0.0
IMTVM211 MANTOVA CE   0 2 407.92     0.0     0.0  -165.7    26.3  -265.0  -387.0   200.3  -351.4   5.0   386.3
IMTVM311 MANTOVA CE   0 2 407.92     0.0     0.0  -139.7    23.1  -265.0  -387.0   201.5  -358.2   5.0   386.3
IMTVM121 MANTOVA CE   0 0 209.99    -0.0     0.0     0.0     0.0     0.0     0.0     0.0     0.0   0.0     0.0
IMTVM12M MANTOVA CE   0 0 236.62     0.0     0.0     0.0     0.0     0.0     0.0     0.0     0.0   0.0     0.0
IMNTMA11 MANTOVA ST   0 0 407.92     0.0     0.0     0.0     0.0     0.0     0.0     0.0     0.0   0.0     0.0
IMARMA21 MARCARIA     0 0 238.30    38.6   -35.6     0.0     0.0     0.0     0.0     0.0     0.0   0.0     0.0
IMRLM121 MARCELLO     0 0 241.59    38.7     0.1     0.0     0.0     0.0     0.0     0.0     0.0   0.0     0.0
IPMLV32Z MARGHERA L   0 0 220.00     0.0     0.0     0.0     0.0     0.0     0.0     0.0     0.0   0.0     0.0
IPMLV421 MARGHERA L   0 2 234.46     0.0     0.0  -496.0   119.1   -25.5  -510.0   281.0  -331.7   8.0   510.0
IPMLV52Z MARGHERA L   0 0 220.00     0.0     0.0     0.0     0.0     0.0     0.0     0.0     0.0   0.0     0.0
IPMLV621 MARGHERA L   0 0 234.59     0.0     0.0     0.0     0.0     0.0     0.0     0.0     0.0   0.0     0.0
IPMLV721 MARGHERA L   0 0 234.59     0.0     0.0     0.0     0.0     0.0     0.0     0.0     0.0   0.0     0.0
IMRGF111 MARGINONE    0 0 407.00   303.7    78.9     0.0     0.0     0.0     0.0     0.0     0.0   0.0     0.0
IMRTF111 MARTIGNONE   0 0 406.52   281.2    60.4     0.0     0.0     0.0     0.0     0.0     0.0   0.0     0.0
IMAAT121 MARTINETTO   0 0 233.00    42.8     1.2     0.0     0.0     0.0     0.0     0.0     0.0   0.0     0.0
IMPIV121 MASO PILL    0 0 240.39     0.0     0.0     0.0     0.0     0.0     0.0     0.0     0.0   0.0     0.0
IMPIV221 MASO PILL    0 0 228.99     0.0     0.0     0.0     0.0     0.0     0.0     0.0     0.0   0.0     0.0
IMRAN21Z MATERA       0 0 400.00     0.0     0.0     0.0     0.0     0.0     0.0     0.0     0.0   0.0     0.0
IMRAN311 MATERA       0 2 397.99     0.0     0.0     2.7    94.4     0.0     0.0   125.0  -290.0   0.0     0.0
IMRANA11 MATERA       0 0 398.06     5.1  -129.9     0.0     0.0     0.0     0.0     0.0     0.0   0.0     0.0
IMLFNA11 MELFI 380    0 0 402.87   -11.7   -19.1     0.0     0.0     0.0     0.0     0.0     0.0   0.0     0.0
IMRCM111 MERCALLO     0 0 409.57   206.1     1.1     0.0     0.0     0.0     0.0     0.0     0.0   0.0     0.0
IMESM121 MESE         0 0 241.76     0.0     0.0     0.0     0.0     0.0     0.0     0.0     0.0   0.0     0.0
ICTMMA21 MINCIO       0 0 236.93    29.0    42.0     0.0     0.0     0.0     0.0     0.0     0.0   0.0     0.0
IMDGN111 MODUGNO CE   0 2 398.66     0.0     0.0  -345.1     3.2  -194.0  -619.0   209.8  -445.1   5.0   619.0
IMOIV121 MOLINE       0 0 232.58     0.0     0.0     0.0     0.0     0.0     0.0     0.0     0.0   0.0     0.0
IMLAV121 MOLINE NK    0 0 232.58     0.0     0.0     0.0     0.0     0.0     0.0     0.0     0.0   0.0     0.0
IMOCT121 MONCAL.CP    0 0 233.11    15.7    -1.1     0.0     0.0     0.0     0.0     0.0     0.0   0.0     0.0
IMOCT122 MONCAL.CP    0 0 231.08    11.4    -2.2     0.0     0.0     0.0     0.0     0.0     0.0   0.0     0.0
IMOAT121 MONCALIER    0 0 220.00     0.0     0.0     0.0     0.0     0.0     0.0     0.0     0.0   0.0     0.0
IMOAT12M MONCALIER    0 0 231.07     0.0     0.0     0.0     0.0     0.0     0.0     0.0     0.0   0.0     0.0
IMOAT12N MONCALIER    0 0 233.11     0.0     0.0     0.0     0.0     0.0     0.0     0.0     0.0   0.0     0.0
IMOAT32Z MONCALIER    0 0 220.00     0.0     0.0     0.0     0.0     0.0     0.0     0.0     0.0   0.0     0.0
IMOAT42Z MONCALIER    0 0 220.00     0.0     0.0     0.0     0.0     0.0     0.0     0.0     0.0   0.0     0.0
IMOAT52Z MONCALIER    0 0 220.00     0.0     0.0     0.0     0.0     0.0     0.0     0.0     0.0   0.0     0.0
IMOAT62Z MONCALIER    0 0 220.00     0.0     0.0     0.0     0.0     0.0     0.0     0.0     0.0   0.0     0.0
IMOAT72Z MONCALIER    0 0 220.00     0.0     0.0     0.0     0.0     0.0     0.0     0.0     0.0   0.0     0.0
IMOAT82Z MONCALIER    0 0 220.00     0.0     0.0     0.0     0.0     0.0     0.0     0.0     0.0   0.0     0.0
IMOATA21 MONCALIER    0 2 231.07     0.0     0.0  -151.8   181.8  -215.0  -388.0   148.3  -261.7   5.3   388.0
IMOATA22 MONCALIER    0 0 233.11     0.0     0.0     0.0     0.0     0.0     0.0     0.0     0.0   0.0     0.0
IMFTV11Z MONFALC.CE   0 0 400.00     0.0     0.0     0.0     0.0     0.0     0.0     0.0     0.0   0.0     0.0
IMFTV121 MONFALC.CE   0 2 238.50     0.0     0.0  -139.8     0.5  -132.0  -165.0    20.9   -91.8   8.0   165.0
IMLTR111 MONTALT.CE   0 0 400.00     0.0     0.0     0.0     0.0     0.0     0.0     0.0     0.0   0.0     0.0
IMLTR112 MONTALT.CE   0 0 399.47     0.0     0.0     0.0     0.0     0.0     0.0     0.0     0.0   0.0     0.0
IMLTR211 MONTALT.CE   0 0 399.47     0.0     0.0     0.0     0.0     0.0     0.0     0.0     0.0   0.0     0.0
IMLTR311 MONTALT.CE   0 0 399.46     0.0     0.0     0.0     0.0     0.0     0.0     0.0     0.0   0.0     0.0
IMLTR41Z MONTALT.CE   0 0 400.00     0.0     0.0     0.0     0.0     0.0     0.0     0.0     0.0   0.0     0.0
IMOSR111 MONTALTO     0 0 399.46   -47.0   -28.5     0.0     0.0     0.0     0.0     0.0     0.0   0.0     0.0
IMOSR21Z MONTALTO     0 0 400.00     0.0     0.0     0.0     0.0     0.0     0.0     0.0     0.0   0.0     0.0
IMOSRA11 MONTALTO     0 0 400.00     0.0     0.0     0.0     0.0     0.0     0.0     0.0     0.0   0.0     0.0
IMOSRA1M MONTALTO     0 0 399.46     0.0     0.0     0.0     0.0     0.0     0.0     0.0     0.0   0.0     0.0
IMOSRA1N MONTALTO     0 0 399.46     0.0     0.0     0.0     0.0     0.0     0.0     0.0     0.0   0.0     0.0
IMTJT121 MONTJOVET    0 2 236.12     0.0     0.0   -14.9    -7.1     0.0   -50.0    50.0   -36.0   6.0    50.0
IMONR12Z MONTOR.CE    0 0 220.00     0.0     0.0     0.0     0.0     0.0     0.0     0.0     0.0   0.0     0.0
IMONR22Z MONTOR.CE    0 0 220.00     0.0     0.0     0.0     0.0     0.0     0.0     0.0     0.0   0.0     0.0
IMONR32Z MONTOR.CE    0 0 220.00     0.0     0.0     0.0     0.0     0.0     0.0     0.0     0.0   0.0     0.0
IMNVR121 MONTOR.SE    0 0 228.48     0.0     0.0     0.0     0.0     0.0     0.0     0.0     0.0   0.0     0.0
IMORTA21 MORIGALLO    0 0 234.91   121.4   -69.1     0.0     0.0     0.0     0.0     0.0     0.0   0.0     0.0
IMUSM111 MUSIGNANO    0 0 409.16     0.0     0.0     0.0     0.0     0.0     0.0     0.0     0.0   0.0     0.0
IMUSM11M MUSIGNANO    0 0 400.00     0.0     0.0     0.0     0.0     0.0     0.0     0.0     0.0   0.0     0.0
IMUCM121 MUSOCCO ST   0 0 241.67   -22.6    15.6     0.0     0.0     0.0     0.0     0.0     0.0   0.0     0.0
INACN121 NAPOLI C     0 0 230.09    40.4     4.2     0.0     0.0     0.0     0.0     0.0     0.0   0.0     0.0
INADN121 NAPOLI DIR   0 0 229.97    49.0     2.1     0.0     0.0     0.0     0.0     0.0     0.0   0.0     0.0
INALN121 NAPOLI L     0 2 230.00     0.0     0.0  -337.3    21.7  -240.0  -385.0   180.4  -212.9   4.3   385.0
INALNA21 NAPOLI L     0 0 230.02     0.0     0.0     0.0     0.0     0.0     0.0     0.0     0.0   0.0     0.0
INSCN12Z NASTRO CAR   0 0 220.00     0.0     0.0     0.0     0.0     0.0     0.0     0.0     0.0   0.0     0.0
INTAV121 NAT.P4 NK    0 0 225.64     6.8    74.5     0.0     0.0     0.0     0.0     0.0     0.0   0.0     0.0
IP41V121 NAT.P41 NK   0 0 226.95     0.0     0.0     0.0     0.0     0.0     0.0     0.0     0.0   0.0     0.0
INATV121 NATURNO      0 0 225.68    26.2     0.4     0.0     0.0     0.0     0.0     0.0     0.0   0.0     0.0
INAVM111 NAVE         0 0 413.70    74.5     3.3     0.0     0.0     0.0     0.0     0.0     0.0   0.0     0.0
INAVM121 NAVE         0 0 235.14   102.0    29.6     0.0     0.0     0.0     0.0     0.0     0.0   0.0     0.0
INOCN121 NOCERA       0 0 228.71    51.9     5.6     0.0     0.0     0.0     0.0     0.0     0.0   0.0     0.0
INGRV111 NOGAROLE     0 0 410.03   133.2    12.2     0.0     0.0     0.0     0.0     0.0     0.0   0.0     0.0
INOLN121 NOLA         0 0 229.25    54.0     5.0     0.0     0.0     0.0     0.0     0.0     0.0   0.0     0.0
INOXRA21 NOMENTA.RT   0 0 226.97    53.0    15.4     0.0     0.0     0.0     0.0     0.0     0.0   0.0     0.0
INOST121 NOVARA SUD   0 0 239.65   -49.2     6.4     0.0     0.0     0.0     0.0     0.0     0.0   0.0     0.0
INOSTA21 NOVARA SUD   0 0 220.00     0.0     0.0     0.0     0.0     0.0     0.0     0.0     0.0   0.0     0.0
INOSTA2M NOVARA SUD   0 0 239.65     0.0     0.0     0.0     0.0     0.0     0.0     0.0     0.0   0.0     0.0
INOVT121 NOVI L.      0 0 233.69     0.0     0.0     0.0     0.0     0.0     0.0     0.0     0.0   0.0     0.0
IODZVA21 ODERZO       0 0 234.47    43.4    11.6     0.0     0.0     0.0     0.0     0.0     0.0   0.0     0.0
IOSPM111 OSPIATE      0 0 411.13   272.3   -10.2     0.0     0.0     0.0     0.0     0.0     0.0   0.0     0.0
IOSPM121 OSPIATE      0 0 241.47     0.0     0.0     0.0     0.0     0.0     0.0     0.0     0.0   0.0     0.0
IOSCM111 OSTIGL.CE    0 2 406.26     0.0     0.0  -362.4    37.9   -30.3  -606.0   157.8  -223.1   5.0   606.0
IOSCM211 OSTIGL.CE    0 0 406.27     0.0     0.0     0.0     0.0     0.0     0.0     0.0     0.0   0.0     0.0
IOSCM411 OSTIGL.CE    0 2 406.24     0.0     0.0  -370.0    59.0  -165.0  -383.0   155.9  -217.5   5.0   383.0
IOSTM111 OSTIGL.ST    0 0 406.28   154.5   -33.5     0.0     0.0     0.0     0.0     0.0     0.0   0.0     0.0
IPCOF111 P.CORSINI    0 2 404.06     0.0     0.0  -516.6   102.9  -419.0  -838.0   354.4  -598.5   5.0   838.0
IPISF111 P.SPERANZA   0 0 405.23    45.9    16.4     0.0     0.0     0.0     0.0     0.0     0.0   0.0     0.0
IPVNMA21 P.VENEZIA    0 0 241.62    59.4    -6.5     0.0     0.0     0.0     0.0     0.0     0.0   0.0     0.0
IPDRV121 PADRICIANO   0 0 238.70    14.7   -10.0     0.0     0.0     0.0     0.0     0.0     0.0   0.0     0.0
IPDRV12Z PADRICIANO   0 0 220.00     0.0     0.0     0.0     0.0     0.0     0.0     0.0     0.0   0.0     0.0
IPLLTA21 PALLANZENO   0 0 239.12    57.4    10.9     0.0     0.0     0.0     0.0     0.0     0.0   0.0     0.0
IPDCN111 PALO D.C.    0 0 398.53    10.2   -62.6     0.0     0.0     0.0     0.0     0.0     0.0   0.0     0.0
IPRMF111 PARMA VIGH   0 0 407.40   290.2    52.3     0.0     0.0     0.0     0.0     0.0     0.0   0.0     0.0
IPATN111 PATRIA       0 0 399.88   107.6  -141.5     0.0     0.0     0.0     0.0     0.0     0.0   0.0     0.0
IPATN121 PATRIA       0 0 229.87     0.0     0.0     0.0     0.0     0.0     0.0     0.0     0.0   0.0     0.0
IPELT121 PELLERINA    0 0 233.00     0.0     0.0     0.0     0.0     0.0     0.0     0.0     0.0   0.0     0.0
IPELT122 PELLERINA    0 0 232.89     0.0     0.0     0.0     0.0     0.0     0.0     0.0     0.0   0.0     0.0
IPZAM11Z PIACENZA     0 0 400.00     0.0     0.0     0.0     0.0     0.0     0.0     0.0     0.0   0.0     0.0
IPNCM111 PIANCAMUNO   0 0 416.73   168.8   -40.2     0.0     0.0     0.0     0.0     0.0     0.0   0.0     0.0
IPIATA21 PIANEZZA     0 0 232.57    94.0   150.2     0.0     0.0     0.0     0.0     0.0     0.0   0.0     0.0
IPFNR121 PIETRAF.N.   0 0 228.16     0.0     0.0     0.0     0.0     0.0     0.0     0.0     0.0   0.0     0.0
IPF2R121 PIETRAF220   0 0 228.16   139.6     8.3     0.0     0.0     0.0     0.0     0.0     0.0   0.0     0.0
IPVAM111 PIEVE ALBI   0 0 403.49     0.0     0.0     0.0     0.0     0.0     0.0     0.0     0.0   0.0     0.0
IPBNF11Z PIOMBINO T   0 0 400.00     0.0     0.0     0.0     0.0     0.0     0.0     0.0     0.0   0.0     0.0
IPBNF21Z PIOMBINO T   0 0 400.00     0.0     0.0     0.0     0.0     0.0     0.0     0.0     0.0   0.0     0.0
IPIOTA11 PIOSSASCO    0 0 404.32   127.6   229.6     0.0     0.0     0.0     0.0     0.0     0.0   0.0     0.0
IPIOTA21 PIOSSASCO    0 0 232.92     0.0     0.0     0.0     0.0     0.0     0.0     0.0     0.0   0.0     0.0
IPSTNA21 PISTICCI     0 0 210.83    27.7   -15.2     0.0     0.0     0.0     0.0     0.0     0.0   0.0     0.0
IPLNV111 PLANAIS      0 0 408.84   139.0   -25.9     0.0     0.0     0.0     0.0     0.0     0.0   0.0     0.0
IPACF111 POGGIO A C   0 0 406.35   251.5    -2.5     0.0     0.0     0.0     0.0     0.0     0.0   0.0     0.0
IPGRN121 POGGIOR.     0 0 229.64    58.7     6.4     0.0     0.0     0.0     0.0     0.0     0.0   0.0     0.0
IPGNM111 POGLIANO     0 0 411.23     0.0     0.0     0.0     0.0     0.0     0.0     0.0     0.0   0.0     0.0
IPLTT121 POLITECNIC   0 0 232.98     0.0     0.0     0.0     0.0     0.0     0.0     0.0     0.0   0.0     0.0
IPONTA21 PONTE V.F.   0 0 239.66   -36.8    -2.0     0.0     0.0     0.0     0.0     0.0     0.0   0.0     0.0
IPTRVA21 PONTERESIA   0 0 226.69    89.1   158.9     0.0     0.0     0.0     0.0     0.0     0.0   0.0     0.0
IPTRVA2M PONTERESIA   0 0 227.00     0.0     0.0     0.0     0.0     0.0     0.0     0.0     0.0   0.0     0.0
IPOPR121 POPOLI       0 0 226.46     4.3    -1.4     0.0     0.0     0.0     0.0     0.0     0.0   0.0     0.0
IPNEV121 PORDENONE    0 0 234.79    26.4   -17.5     0.0     0.0     0.0     0.0     0.0     0.0   0.0     0.0
IPSEF12Z PORTALE      0 0 220.00     0.0     0.0     0.0     0.0     0.0     0.0     0.0     0.0   0.0     0.0
IPTVMA21 PORTAVOLTA   0 0 241.56   136.3    -2.9     0.0     0.0     0.0     0.0     0.0     0.0   0.0     0.0
IPTOV111 PORTOTOLLE   0 0 407.03    -4.6    11.9     0.0     0.0     0.0     0.0     0.0     0.0   0.0     0.0
IPOZN121 POZZUOLI     0 0 220.00     0.0     0.0     0.0     0.0     0.0     0.0     0.0     0.0   0.0     0.0
IPOZN122 POZZUOLI     0 0 229.80    20.4     2.4     0.0     0.0     0.0     0.0     0.0     0.0   0.0     0.0
IPRCV121 PRACOMUNE    0 0 220.00     0.0     0.0     0.0     0.0     0.0     0.0     0.0     0.0   0.0     0.0
IPRCV12M PRACOMUNE    0 0 231.32     0.0     0.0     0.0     0.0     0.0     0.0     0.0     0.0   0.0     0.0
IPEDN111 PRE EDISON   0 0 398.06     0.0     0.0     0.0     0.0     0.0     0.0     0.0     0.0   0.0     0.0
IKPRM121 PREMAD. AL   0 0 245.25     0.0     0.0     0.0     0.0     0.0     0.0     0.0     0.0   0.0     0.0
IPDMM121 PREMADIO     0 0 245.26     0.0     0.0     0.0     0.0     0.0     0.0     0.0     0.0   0.0     0.0
IPDMMA21 PREMADIO     0 0 245.26    15.7    -7.1     0.0     0.0     0.0     0.0     0.0     0.0   0.0     0.0
IPREN111 PRESENZANO   0 0 398.04     0.0     0.0     0.0     0.0     0.0     0.0     0.0     0.0   0.0     0.0
IPREN121 PRESENZANO   0 0 229.09     7.9     0.4     0.0     0.0     0.0     0.0     0.0     0.0   0.0     0.0
IPR2R121 PROVVID.A2   0 0 225.02     0.0     0.0     0.0     0.0     0.0     0.0     0.0     0.0   0.0     0.0
IPRVR121 PROVVIDEN.   0 0 224.86     0.0     0.0     0.0     0.0     0.0     0.0     0.0     0.0   0.0     0.0
IPRVR122 PROVVIDEN.   0 0 225.02     0.0     0.0     0.0     0.0     0.0     0.0     0.0     0.0   0.0     0.0
IQUAT121 QUART        0 2 237.97     0.0     0.0   -18.7   -28.8     0.0   -48.0    22.8   -42.8   6.0    48.9
IQUDT121 QUART IC     0 0 237.93     0.0     0.0     0.0     0.0     0.0     0.0     0.0     0.0   0.0     0.0
IRATV121 RAT.P62 NK   0 0 227.02     0.0     0.0     0.0     0.0     0.0     0.0     0.0     0.0   0.0     0.0
IRATN111 RATINO       0 2 395.41     0.0     0.0  -273.5   -19.4  -116.0  -447.0   182.0  -256.0   2.0   447.0
IRACF111 RAVENNA C.   0 0 404.64    34.7    -0.6     0.0     0.0     0.0     0.0     0.0     0.0   0.0     0.0
IRDPVA11 REDIPUGLIA   0 0 410.16    33.4   -23.5     0.0     0.0     0.0     0.0     0.0     0.0   0.0     0.0
IRDPVA21 REDIPUGLIA   0 0 237.71     0.0     0.0     0.0     0.0     0.0     0.0     0.0     0.0   0.0     0.0
IRDPVA2M REDIPUGLIA   0 0 235.84     0.0     0.0     0.0     0.0     0.0     0.0     0.0     0.0   0.0     0.0
IROXM111 RHO          0 0 411.26     0.0     0.0     0.0     0.0     0.0     0.0     0.0     0.0   0.0     0.0
IRCOV121 RIC. OVEST   0 0 236.38    -4.9     1.4     0.0     0.0     0.0     0.0     0.0     0.0   0.0     0.0
INOMMA21 RIC.NORD M   0 0 241.38   117.9    -8.6     0.0     0.0     0.0     0.0     0.0     0.0   0.0     0.0
IBSOMA21 RIC.OV. BS   0 0 220.00     0.0     0.0     0.0     0.0     0.0     0.0     0.0     0.0   0.0     0.0
IBSOMA2M RIC.OV. BS   0 0 241.80     0.0     0.0     0.0     0.0     0.0     0.0     0.0     0.0   0.0     0.0
IOVMMA21 RIC.OV. MI   0 0 241.80    69.7   -12.6     0.0     0.0     0.0     0.0     0.0     0.0   0.0     0.0
ISMIMA21 RIC.SUD MI   0 0 241.81   113.5    -1.2     0.0     0.0     0.0     0.0     0.0     0.0   0.0     0.0
IKSEMA21 RISE SESTO   0 0 220.00     0.0     0.0     0.0     0.0     0.0     0.0     0.0     0.0   0.0     0.0
IKSEMA2M RISE SESTO   0 0 238.94     0.0     0.0     0.0     0.0     0.0     0.0     0.0     0.0   0.0     0.0
IKSEMA2N RISE SESTO   0 0 238.94     0.0     0.0     0.0     0.0     0.0     0.0     0.0     0.0   0.0     0.0
IRICN111 RIZZIC.CE    0 2 402.26     0.0     0.0  -337.6   -41.8  -200.0  -375.0   160.2  -273.5   3.7   375.0
IRICN211 RIZZIC.CE    0 0 402.23     0.0     0.0     0.0     0.0     0.0     0.0     0.0     0.0   0.0     0.0
IRIZN111 RIZZICONI    0 0 402.29   171.2  -149.4     0.0     0.0     0.0     0.0     0.0     0.0   0.0     0.0
IRIZN211 RIZZICONI    0 0 402.23     0.0   151.7     0.0     0.0     0.0     0.0     0.0     0.0   0.0     0.0
IRMER111 ROMA EST     0 0 394.62   250.5   -27.5     0.0     0.0     0.0     0.0     0.0     0.0   0.0     0.0
IRMNR111 ROMA NORD    0 0 394.61   238.9   166.5     0.0     0.0     0.0     0.0     0.0     0.0   0.0     0.0
IRMNR121 ROMA NORD    0 0 227.47     0.0   175.5     0.0     0.0     0.0     0.0     0.0     0.0   0.0     0.0
IRMOR111 ROMA OVEST   0 0 398.08   468.2  -217.2     0.0     0.0     0.0     0.0     0.0     0.0   0.0     0.0
IRMSR111 ROMA SUD     0 0 394.41   330.2   257.5     0.0     0.0     0.0     0.0     0.0     0.0   0.0     0.0
IRMSR121 ROMA SUD     0 0 226.61     0.0   174.5     0.0     0.0     0.0     0.0     0.0     0.0   0.0     0.0
IROVM11Z RONCOVALGR   0 0 400.00     0.0     0.0     0.0     0.0     0.0     0.0     0.0     0.0   0.0     0.0
IROVM211 RONCOVALGR   0 2 409.18     0.0     0.0    97.4   -23.9    98.0  -130.0    54.2   -65.0   5.0   130.0
IROVM311 RONCOVALGR   0 0 409.16     0.0     0.0     0.0     0.0     0.0     0.0     0.0     0.0   0.0     0.0
IROVM411 RONCOVALGR   0 0 409.16     0.0     0.0     0.0     0.0     0.0     0.0     0.0     0.0   0.0     0.0
IRONT111 RONDISSONE   0 0 405.55   169.9    -2.6     0.0     0.0     0.0     0.0     0.0     0.0   0.0     0.0
IRONT112 RONDISSONE   0 0 392.35     0.0     0.0     0.0     0.0     0.0     0.0     0.0     0.0   0.0     0.0
IRONT113 RONDISSONE   0 0 392.35     0.0     0.0     0.0     0.0     0.0     0.0     0.0     0.0   0.0     0.0
IRONT121 RONDISSONE   0 0 232.24     0.0     0.0     0.0     0.0     0.0     0.0     0.0     0.0   0.0     0.0
IRSRR21Z ROSARA       0 0 400.00     0.0     0.0     0.0     0.0     0.0     0.0     0.0     0.0   0.0     0.0
IRSRRA11 ROSARA       0 0 393.67    68.6   -16.2     0.0     0.0     0.0     0.0     0.0     0.0   0.0     0.0
IRSRRA21 ROSARA       0 0 229.58    47.4   -18.0     0.0     0.0     0.0     0.0     0.0     0.0   0.0     0.0
IRRKR121 ROSARA NK    0 0 229.47     0.0     0.0     0.0     0.0     0.0     0.0     0.0     0.0   0.0     0.0
IRELF111 ROSELECTRA   0 2 407.76     0.0     0.0  -297.4    -2.4  -163.0  -386.0   194.6  -278.5   5.0   386.0
IRSNF111 ROSEN        0 0 407.70   -96.5    36.1     0.0     0.0     0.0     0.0     0.0     0.0   0.0     0.0
IRRSF111 ROSIGNANO    0 0 407.73     0.0     0.0     0.0     0.0     0.0     0.0     0.0     0.0   0.0     0.0
IROAT121 ROSONE       0 0 235.36     0.0     0.0     0.0     0.0     0.0     0.0     0.0     0.0   0.0     0.0
IROATA21 ROSONE       0 0 235.36    44.0   -10.2     0.0     0.0     0.0     0.0     0.0     0.0   0.0     0.0
IROSN111 ROSSANO TE   0 2 395.58    15.7    77.8   -29.0    -9.8   -44.0  -114.0    41.7   -75.7   5.0   114.0
IRLLR111 ROTELLO380   0 0 393.26    -0.7    -3.0     0.0     0.0     0.0     0.0     0.0     0.0   0.0     0.0
IRZNM121 ROZZANO      0 0 240.10    16.5    -5.1     0.0     0.0     0.0     0.0     0.0     0.0   0.0     0.0
IRUBFA11 RUBIERA      0 0 407.61   290.0   -21.7     0.0     0.0     0.0     0.0     0.0     0.0   0.0     0.0
ISAZV121 S.ANT C.LE   0 0 230.02     0.0     0.0     0.0     0.0     0.0     0.0     0.0     0.0   0.0     0.0
ISNTN121 S.ANTIMO     0 0 229.42    31.2     6.1     0.0     0.0     0.0     0.0     0.0     0.0   0.0     0.0
ISATV121 S.ANTONIO    0 0 230.02    -0.0    -4.5     0.0     0.0     0.0     0.0     0.0     0.0   0.0     0.0
ISBQF121 S.B.QUERCE   0 0 235.26    -0.2    -1.7     0.0     0.0     0.0     0.0     0.0     0.0   0.0     0.0
ISBAF111 S.BARB.CLE   0 2 408.30     0.0     0.0  -103.5    34.7   -73.0  -139.0    85.2  -109.6   5.0   139.0
ISBAF211 S.BARB.CLE   0 2 408.37     0.0     0.0  -192.5   -59.8  -147.0  -257.0    99.7  -160.2   5.0   257.0
ISBSFA11 S.BARBARA    0 0 400.00     0.0     0.0     0.0     0.0     0.0     0.0     0.0     0.0   0.0     0.0
ISBSFA12 S.BARBARA    0 0 408.33     0.0     0.0     0.0     0.0     0.0     0.0     0.0     0.0   0.0     0.0
ISBSFA21 S.BARBARA    0 0 233.82     0.0     0.0     0.0     0.0     0.0     0.0     0.0     0.0   0.0     0.0
ISCOT121 S.COLOM.GE   0 0 234.17    60.1    39.0     0.0     0.0     0.0     0.0     0.0     0.0   0.0     0.0
ISCOTA21 S.COLOM.GE   0 0 234.17     0.0     0.0     0.0     0.0     0.0     0.0     0.0     0.0   0.0     0.0
ISCRM121 S.CRISTOF    0 0 241.84     0.0     0.0     0.0     0.0     0.0     0.0     0.0     0.0   0.0     0.0
ISDMF111 S.DAMASO     0 0 407.41   119.9   -19.1     0.0     0.0     0.0     0.0     0.0     0.0   0.0     0.0
ISFIM111 S.FIORANO    0 0 417.55     0.0     0.0     0.0     0.0     0.0     0.0     0.0     0.0   0.0     0.0
ISFLV121 S.FLORIANO   0 0 229.97     0.0     0.0     0.0     0.0     0.0     0.0     0.0     0.0   0.0     0.0
ISGIR11Z S.GIACO.CE   0 0 400.00     0.0     0.0     0.0     0.0     0.0     0.0     0.0     0.0   0.0     0.0
ISGIR12Z S.GIACO.CE   0 0 220.00     0.0     0.0     0.0     0.0     0.0     0.0     0.0     0.0   0.0     0.0
ISGSR111 S.GIACO.SE   0 0 389.92     0.0     0.0     0.0     0.0     0.0     0.0     0.0     0.0   0.0     0.0
ISGSR121 S.GIACO.SE   0 0 224.63     0.0     0.0     0.0     0.0     0.0     0.0     0.0     0.0   0.0     0.0
ISIKR121 S.GIANK      0 0 224.86     0.0     0.0     0.0     0.0     0.0     0.0     0.0     0.0   0.0     0.0
ISLUR111 S.LUCIA      0 0 397.68    14.7   -18.2     0.0     0.0     0.0     0.0     0.0     0.0   0.0     0.0
ISLUR121 S.LUCIA      0 0 230.16    24.8   -31.6     0.0     0.0     0.0     0.0     0.0     0.0   0.0     0.0
ISMRNA11 S.MARIA C.   0 0 398.49   204.9   -94.3     0.0     0.0     0.0     0.0     0.0     0.0   0.0     0.0
ISMRN121 S.MARIA C.   0 0 229.42     0.0     0.0     0.0     0.0     0.0     0.0     0.0     0.0   0.0     0.0
ISMVF111 S.MART. XX   0 0 404.14   122.2    15.1     0.0     0.0     0.0     0.0     0.0     0.0   0.0     0.0
ISMCVA21 S.MASS. CE   0 0 233.28     0.0     0.0     0.0     0.0     0.0     0.0     0.0     0.0   0.0     0.0
ISMCVA22 S.MASS. CE   0 0 233.28     0.0     0.0     0.0     0.0     0.0     0.0     0.0     0.0   0.0     0.0
ISMSV121 S.MASSENZA   0 0 233.28     0.0     0.0     0.0     0.0     0.0     0.0     0.0     0.0   0.0     0.0
ISPCV12Z S.PANCRAZ.   0 0 220.00     0.0     0.0     0.0     0.0     0.0     0.0     0.0     0.0   0.0     0.0
ISPCVA21 S.PANCRAZ.   0 0 231.27     0.0     0.0     0.0     0.0     0.0     0.0     0.0     0.0   0.0     0.0
ISROM111 S.ROCCO PO   0 0 408.64   266.6   -47.8     0.0     0.0     0.0     0.0     0.0     0.0   0.0     0.0
ISSEN121 S.SEBAST.    0 0 229.85    24.9     0.4     0.0     0.0     0.0     0.0     0.0     0.0   0.0     0.0
ISEVN111 S.SEVER380   0 0 395.23    -3.2    -3.3     0.0     0.0     0.0     0.0     0.0     0.0   0.0     0.0
...